Version 4.1
SHEET 1 1124 1220
WIRE 624 0 416 0
WIRE 960 0 688 0
WIRE -352 160 -464 160
WIRE -192 160 -272 160
WIRE -80 160 -192 160
WIRE 272 160 160 160
WIRE 416 160 416 0
WIRE 416 160 352 160
WIRE 464 160 416 160
WIRE 640 160 544 160
WIRE 768 160 640 160
WIRE 112 176 16 176
WIRE 160 176 160 160
WIRE 160 176 112 176
WIRE 960 176 960 0
WIRE 960 176 864 176
WIRE 1008 176 960 176
WIRE 1024 176 1008 176
WIRE -80 192 -128 192
WIRE 640 192 640 160
WIRE 768 192 720 192
WIRE -192 208 -192 160
WIRE -48 240 -48 224
WIRE -128 304 -128 192
WIRE 112 304 112 176
WIRE 112 304 -128 304
WIRE 720 320 720 192
WIRE 960 320 960 176
WIRE 960 320 720 320
WIRE -256 480 -256 416
WIRE 336 496 336 480
WIRE 336 528 336 496
WIRE 640 528 640 480
WIRE -256 640 -256 560
WIRE 336 656 336 608
WIRE 640 656 640 608
WIRE 624 864 416 864
WIRE 960 864 688 864
WIRE -352 1024 -448 1024
WIRE -192 1024 -272 1024
WIRE -80 1024 -192 1024
WIRE 272 1024 160 1024
WIRE 416 1024 416 864
WIRE 416 1024 352 1024
WIRE 464 1024 416 1024
WIRE 640 1024 544 1024
WIRE 768 1024 640 1024
WIRE 112 1040 16 1040
WIRE 160 1040 160 1024
WIRE 160 1040 112 1040
WIRE 960 1040 960 864
WIRE 960 1040 864 1040
WIRE 1008 1040 960 1040
WIRE 1024 1040 1008 1040
WIRE -80 1056 -128 1056
WIRE 640 1056 640 1024
WIRE 768 1056 720 1056
WIRE -192 1072 -192 1024
WIRE -48 1104 -48 1088
WIRE -128 1168 -128 1056
WIRE 112 1168 112 1040
WIRE 112 1168 -128 1168
WIRE 720 1184 720 1056
WIRE 960 1184 960 1040
WIRE 960 1184 720 1184
FLAG -192 272 0
FLAG 640 256 0
FLAG 336 656 0
FLAG 640 656 0
FLAG -256 640 0
FLAG 1008 176 out_Butterworth
FLAG 336 496 V+
FLAG -48 240 V+
FLAG 800 224 V+
FLAG 640 480 V-
FLAG 800 128 V-
FLAG -48 128 V-
FLAG -192 1136 0
FLAG 640 1120 0
FLAG 1008 1040 out_Chebysev
FLAG -48 1104 V+
FLAG 800 1088 V+
FLAG 800 992 V-
FLAG -48 992 V-
FLAG -464 160 In
FLAG -256 416 In
FLAG -448 1024 In
SYMBOL OpAmps\\LT6020 -32 176 M180
SYMATTR InstName U1
SYMBOL OpAmps\\LT6020 816 176 M180
SYMATTR InstName U2
SYMBOL res -256 144 R90
WINDOW 0 0 56 VBottom 2
WINDOW 3 32 56 VTop 2
SYMATTR InstName R1
SYMATTR Value 102k
SYMBOL res 368 144 R90
WINDOW 0 0 56 VBottom 2
WINDOW 3 32 56 VTop 2
SYMATTR InstName R2
SYMATTR Value 162k
SYMBOL res 560 144 R90
WINDOW 0 0 56 VBottom 2
WINDOW 3 32 56 VTop 2
SYMATTR InstName R3
SYMATTR Value 275k
SYMBOL cap -208 208 R0
SYMATTR InstName C1
SYMATTR Value 3.9nF
SYMBOL cap 688 -16 R90
WINDOW 0 0 32 VBottom 2
WINDOW 3 32 32 VTop 2
SYMATTR InstName C2
SYMATTR Value 3.9nF
SYMBOL cap 624 192 R0
SYMATTR InstName C3
SYMATTR Value 910pF
SYMBOL voltage 336 512 R0
WINDOW 123 0 0 Left 0
WINDOW 39 0 0 Left 0
SYMATTR InstName V1
SYMATTR Value 15V
SYMBOL voltage 640 512 R0
WINDOW 123 0 0 Left 0
WINDOW 39 0 0 Left 0
SYMATTR InstName V2
SYMATTR Value -15V
SYMBOL voltage -256 464 R0
WINDOW 123 24 124 Left 2
WINDOW 39 0 0 Left 0
SYMATTR Value2 AC 1
SYMATTR InstName V3
SYMATTR Value PULSE(0 1 1m 1u 1u 12.5m 25m)
SYMBOL OpAmps\\LT6020 -32 1040 M180
SYMATTR InstName U3
SYMBOL OpAmps\\LT6020 816 1040 M180
SYMATTR InstName U4
SYMBOL res -256 1008 R90
WINDOW 0 0 56 VBottom 2
WINDOW 3 32 56 VTop 2
SYMATTR InstName R4
SYMATTR Value 102k
SYMBOL res 368 1008 R90
WINDOW 0 0 56 VBottom 2
WINDOW 3 32 56 VTop 2
SYMATTR InstName R5
SYMATTR Value 458k
SYMBOL res 560 1008 R90
WINDOW 0 0 56 VBottom 2
WINDOW 3 32 56 VTop 2
SYMATTR InstName R6
SYMATTR Value 958k
SYMBOL cap -208 1072 R0
SYMATTR InstName C4
SYMATTR Value 13nF
SYMBOL cap 688 848 R90
WINDOW 0 0 32 VBottom 2
WINDOW 3 32 32 VTop 2
SYMATTR InstName C5
SYMATTR Value 4.3nF
SYMBOL cap 624 1056 R0
SYMATTR InstName C6
SYMATTR Value 100pF
TEXT -64 768 Left 2 !.tran 100m
TEXT 224 768 Left 2 ;.ac dec 100 1Hz 100kHz
